lehigh_full_fb_2.dss
clear
set defaultbasefrequency=60
new object=circuit.lehigh basekv=115 pu=1.0001 phases=3 bus1=sourcebus angle=30 mvasc3=20000 mvasc1=21000
edit object=vsource.source basekv=115 bus1=sourcebus.1.2.3 pu=1.00 r1=0 x1=0.0001 r0=0 x0=0.0001
new object=vsource.secondsource basekv=4.16 bus1=680.1.2.3 pu=1.00 r1=0 x1=0.0001 r0=0 x0=0.0001
new object=transformer.sub phases=3 windings=2 xhl=0.008 buses=[sourcebus.1.2.3,650.1.2.3] conns=[delta,wye] kvs=[115,4.16] kvas=[5000,5000] %rs=[0.0005,0.0005]
new object=transformer.reg1 phases=1 bank=reg1 xhl=0.01 kvas=[1666,1666] buses=[650.1,rg60.1] kvs=[2.4,2.4] %loadloss=0.01
new object=regcontrol.reg1 transformer=reg1 winding=2 vreg=121 band=2 ptratio=20 ctprim=700 r=3 x=9
new object=transformer.reg2 phases=1 bank=reg1 xhl=0.01 kvas=[1666,1666] buses=[650.2,rg60.2] kvs=[2.4,2.4] %loadloss=0.01
new object=regcontrol.reg2 transformer=reg2 winding=2 vreg=121 band=2 ptratio=20 ctprim=700 r=3 x=9
new object=transformer.reg3 phases=1 bank=reg1 xhl=0.01 kvas=[1666,1666] buses=[650.3,rg60.3] kvs=[2.4,2.4] %loadloss=0.01
new object=regcontrol.reg3 transformer=reg3 winding=2 vreg=121 band=2 ptratio=20 ctprim=700 r=3 x=9
new object=transformer.xfm1 phases=3 windings=2 xhl=2 buses=[633.1.2.3,634.1.2.3] conns=[wye,wye] kvs=[4.16,0.480] kvas=[500,500] %rs=[0.55,0.55] xht=1 xlt=1
new object=linecode.mtx601 nphases=3 basefreq=60 rmatrix=[0.3465|0.1560,0.3375|0.1580,0.1535,0.3414] xmatrix=[1.0179|0.5017,1.0478|0.4236,0.3849,1.0348] units=mi
new object=linecode.mtx602 nphases=3 basefreq=60 rmatrix=[0.7526|0.1580,0.7475|0.1560,0.1535,0.7436] xmatrix=[1.1814|0.4236,1.1983|0.5017,0.3849,1.2112] units=mi
new object=linecode.mtx603 nphases=2 basefreq=60 rmatrix=[1.3238|0.2066,1.3294] xmatrix=[1.3569|0.4591,1.3471] units=mi
new object=linecode.mtx604 nphases=2 basefreq=60 rmatrix=[1.3238|0.2066,1.3294] xmatrix=[1.3569|0.4591,1.3471] units=mi
new object=linecode.mtx605 nphases=1 basefreq=60 rmatrix=[1.3292] xmatrix=[1.3475] units=mi
new object=linecode.mtx606 nphases=3 units=mi rmatrix=[0.791721|0.318476,0.781649|0.28345,0.318476,0.791721] xmatrix=[0.438352|0.0276838,0.396697|-0.0184204,0.0276838,0.438352] cmatrix=[383.948|0,383.948|0,0,383.948]
new object=linecode.mtx607 nphases=1 basefreq=60 rmatrix=[1.3425] xmatrix=[0.5124] cmatrix=[236] units=mi
new object=loadshape.solar_634_shape npts=8760 interval=1 useactual=yes mult=[0.0,0.0,0.0,0.0,0.0,0.0,0.0,0.0,7.63561656783703,23.15108459138854,32.679819387700064,100.42223755702656,23.02896714744981,53.8150726118269,80.50875446713545,86.6783660128593,43.308802569157095,2.871249169681267,0.0,0.0,0.0,0.0,0.0,0.0,0.0,0.0,0.0,0.0,0.0,0.0,0.0,0.0,20.03560053382982,50.883062567600525,71.22425455870139,2.809892600287663,152.8940182855275,54.67049041424647,198.52364798436886,136.52313245955642,72.07907666627247,6.169611545723836,0.0,0.0,0.0,0.0,0.0,0.0,0.0,0.0,0.0,0.0,0.0,0.0,0.0,0.0,58.762914023315,137.01219793015977,182.03064471445904,77.14903552169929,137.19507624864366,136.82812822197894,111.78392540211591,97.06251861159036,50.944419136994114,4.0316627345234055,0.0,0.0,0.0,0.0,0.0,0.0,0.0,0.0,0.0,0.0,0.0,0.0,0.0,0.0,89.42749773860184,204.87613784857646,290.88315576719714,344.57611093508524,365.0394203701249,355.3879724350261,312.6289962110175,239.63314517293188,130.59775580171,25.655385734405147,0.0,0.0,0.0,0.0,0.0,0.0,0.0,0.0,0.0,0.0,0.0,0.0,0.0,0.0,97.24599262492272,216.9711260521468,305.2989711004515,358.8084522550074,378.35558301308225,364.97806380073126,319.1649600885575,243.29845557563908,131.81952593594576,25.04479851471152,0.0,0.0,0.0,0.0,0.0,0.0,0.0,0.0,0.0,0.0,0.0,0.0,0.0,0.0,76.84403975927671,181.969883839914,285.26337056662175,255.63708297223832,288.98944184387415,298.09106343382433,299.2514769986665,227.0496871936068,122.90137835932785,22.967610578056213,0.0,0.0,0.0,0.0,0.0,0.0,0.0,0.0,0.0,0.0,0.0,0.0,0.0,0.0,78.00445332411886,77.45462697897035,276.7723361963652,317.45472017856684,284.28583532026335,272.19144281154166,229.43246658753316,117.28159315875256,61.939158955418826,6.597320446933618,0.0,0.0,0.0,0.0,0.0,0.0,0.0,0.0,0.0,0.0,0.0,0.0,0.0,0.0,79.40969747168694,185.14612877201782,48.86723120033882,64.38269922389033,144.09798815284833,166.9428855921173,136.76736734743386,88.63343650557587,47.03487384640943,5.436311187242995,0.0,0.0,0.0,0.0,0.0,0.0,0.0,0.0,0.0,0.0,0.0,0.0,0.0,0.0,81.60840715743248,187.3454341526118,100.42223755702656,213.61140710671054,167.309833618782,78.12657076805758,100.1780026691491,83.80771253802651,43.43092001309581,20.524070309584726,0.0,0.0,0.0,0.0,0.0,0.0,0.0,0.0,0.0,0.0,0.0,0.0,0.0,0.0,37.81113481252049,93.45856477827677,150.57259546099468,258.08062324070977,149.77853422796875,195.591042245294,198.6457654283076,160.28480427063857,89.42749773860184,15.69834634203536,0.0,0.0,0.0,0.0,0.0,0.0,0.0,0.0,0.0,0.0,0.0,0.0,0.0,0.0,98.46776275915846,217.94866129850502,305.05473621257414,357.5259212462265,376.8282214215756,365.0388246752763,322.40256159005503,250.99483301802127,148.98447299494282,36.711482122223465,0.0,0.0,0.0,0.0,0.0,0.0,0.0,0.0,0.0,0.0,0.0,0.0,0.0,0.0,90.95426363526016,206.58697345341565,289.9056205208388,351.53978371383505,373.04138926977816,364.73382891285377,323.19662282308093,244.70310402835872,145.50263660556791,36.16165577707496,0.0,0.0,0.0,0.0,0.0,0.0,0.0,0.0,0.0,0.0,0.0,0.0,0.0,0.0,88.99978883739206,204.2655506288829,287.6455542656996,265.3498874767306,294.5478704750558,267.8541886197472,241.71033310958717,192.84250621439992,114.41093968391978,27.67121710166685,0.0,0.0,0.0,0.0,0.0,0.0,0.0,0.0,0.0,0.0,0.0,0.0,0.0,0.0,37.07783445403965,87.83877957770142,159.18515158034154,202.9216630507084,232.48659407569824,213.36717221883316,126.19974073537044,102.74366038155931,57.96885279028904,9.467973921766404,0.0,0.0,0.0,0.0,0.0,0.0,0.0,0.0,0.0,0.0,0.0,0.0,0.0,0.0,19.54713075807492,52.47118503365244,243.7261644768489,303.83296607833836,350.9286007992929,348.11870819900525,310.979517175572,242.8093901050357,141.5323304404381,35.79530344525879,0.0,0.0,0.0,0.0,0.0,0.0,0.0,0.0,0.0,0.0,0.0,0.0,0.0,0.0,80.93646336834523,188.0781388162441,265.288530907337,224.36250773210634,263.70040844128516,343.3543408008495,207.5031521303804,94.80245235645123,53.08236794819455,9.590091365705126,0.0,0.0,0.0,0.0,0.0,0.0,0.0,0.0,0.0,0.0,0.0,0.0,0.0,0.0,83.6855950940878,201.27218401526287,293.81516581142347,358.07574759137503,371.69750169160363,362.1681712004436,321.608500357029,253.07202095467656,148.19041176191683,38.60519604554646,0.0,0.0,0.0,0.0,0.0,0.0,0.0,0.0,0.0,0.0,0.0,0.0,0.0,0.0,91.38197253646992,205.85367309493483,297.84623285109836,352.76095815322225,374.75162917976877,365.3444161325474,327.8996336518431,256.73673566253535,150.81683034887212,39.826966179782204,0.0,0.0,0.0,0.0,0.0,0.0,0.0,0.0,0.0,0.0,0.0,0.0,0.0,0.0,96.39057482250314,216.11570824972716,303.09966571985746,354.89890696442274,388.80109218120697,378.8440527888373,336.6962594793708,257.5307968955613,158.4524469167092,43.43092001309581,0.0,0.0,0.0,0.0,0.0,0.0,0.0,0.0,0.0,0.0,0.0,0.0,0.0,0.0,94.61957403796735,211.04574939430043,295.0976968202043,345.553050486595,364.4282374555828,353.4942585117031,315.13329735403414,248.4905318750047,150.57259546099468,40.49890996886943,0.0,0.0,0.0,0.0,0.0,0.0,0.0,0.0,0.0,0.0,0.0,0.0,0.0,0.0,24.372854725624286,61.02298027845415,92.42026865737336,52.77677649092348,153.01613572946619,40.804501426140476,42.57550221067625,0.6105872196936304,0.0,0.0,0.0,0.0,0.0,0.0,0.0,0.0,0.0,0.0,0.0,0.0,0.0,0.0,0.0,0.0,22.479140802301306,66.03217825933585,186.6121337941309,199.31770921739482,376.27839507642716,368.1543087328351,173.9679149402607,150.9389477928109,87.77801870315632,19.485774188681308,0.0,0.0,0.0,0.0,0.0,0.0,0.0,0.0,0.0,0.0,0.0,0.0,0.0,0.0,25.411150846527697,65.91006081539712,76.59980487139927,190.6437965286544,402.2393722681032,395.4591735026857,352.94443216655463,278.60469355029454,168.1038948518079,47.64546106610307,0.0,0.0,0.0,0.0,0.0,0.0,0.0,0.0,0.0,0.0,0.0,0.0,0.0,0.0,100.78918558369122,221.91896746363483,309.26927726558137,361.6183448552951,383.42554186850913,374.1404462652266,335.1075413184703,265.65488323915315,166.3930592469688,48.74511375640007,0.0,0.0,0.0,0.0,0.0,0.0,0.0,0.0,0.0,0.0,0.0,0.0,0.0,0.0,96.024222490687,212.08404551520374,295.0363402508107,345.7978810693209,366.6275428361768,356.60974256926175,320.20325620946096,255.5149655282996,159.73497792549006,47.095634720954564,0.0,0.0,0.0,0.0,0.0,0.0,0.0,0.0,0.0,0.0,0.0,0.0,0.0,0.0,63.7107554348031,146.0518672558679,168.3481297396854,249.89518032772426,279.7657028099852,268.0984235076247,244.0925168086651,179.52634357144242,109.95156804818657,31.3972883789192,0.0,0.0,0.0,0.0,0.0,0.0,0.0,0.0,0.0,0.0,0.0,0.0,0.0,0.0,75.7443870689797,176.96068585903217,171.46301810239558,318.49301629947036,336.02371999543504,243.78692535139402,33.84082864739068,237.00672658597657,140.0049688489313,39.39925727857241,0.0,0.0,0.0,0.0,0.0,0.0,0.0,0.0,0.0,0.0,0.0,0.0,0.0,0.0,21.4408446813979,34.512772436477924,52.04347613244265,80.44799359259034,63.52728142147075,44.102863802183045,44.71345102187668,17.347825377480884,8.918147576617894,0.18347401333232996,0.0,0.0,0.0,0.0,0.0,0.0,0.0,0.0,0.0,0.0,0.0,0.0,0.0,0.0,100.91130302762994,219.90313609637315,306.1537932080226,359.4803960440947,381.2262364879151,372.73579781250703,337.2454901296708,271.0304335518511,166.8207681481786,52.837537365468606,0.0,0.0,0.0,0.0,0.0,0.0,0.0,0.0,0.0,0.0,0.0,0.0,0.0,0.0,95.84134417220312,211.90116719671988,296.50294096777236,347.3246469659793,368.58201763404486,361.0077576356015,325.08974105155545,208.66356569522247,138.84455528408915,52.47118503365244,0.0,0.0,0.0,0.0,0.0,0.0,0.0,0.0,0.0,0.0,0.0,0.0,0.0,0.0,29.931283356806013,91.80968143767971,156.31449810550873,158.20821202883175,203.5322502704021,192.23191899470626,173.5402060390509,124.855853157196,76.59980487139927,21.990075331697923,0.0,0.0,0.0,0.0,0.0,0.0,0.0,0.0,0.0,0.0,0.0,0.0,0.0,0.0,100.84994645823635,221.67473257575736,314.1557621076758,368.03219128889634,390.75556697907507,383.9753682136577,344.8811066975078,277.9941063306009,173.1124971378411,57.78537877695671,0.0,0.0,0.0,0.0,0.0,0.0,0.0,0.0,0.0,0.0,0.0,0.0,0.0,0.0,101.2162987900525,215.8107124873046,299.37359444260517,350.80648335535415,371.7582625661487,366.01635992163466,331.4428266106117,268.281897520957,173.05173626329602,58.885031467253725,0.0,0.0,0.0,0.0,0.0,0.0,0.0,0.0,0.0,0.0,0.0,0.0,0.0,0.0,100.48359412642016,87.1668357886142,204.44902464221522,254.0489605061864,289.9056205208388,283.9802438629924,244.64234315381358,70.06384099385926,50.638827679723065,33.413119746180904,0.0,0.0,0.0,0.0,0.0,0.0,0.0,0.0,0.0,0.0,0.0,0.0,0.0,0.0,0.0,77.63810099230267,209.33550948430968,293.5703352286975,382.5093631915445,382.2037717342734,350.19589613566063,284.7743050960184,179.70981758477475,63.222285659048175,0.0,0.0,0.0,0.0,0.0,0.0,0.0,0.0,0.0,0.0,0.0,0.0,0.0,0.0,72.56814213687586,193.5144500034872,289.47791161962897,386.66314337000665,326.73922008700094,367.29948662526397,360.58004873439165,280.0706985724077,108.24132813819591,52.65465904698476,0.0,0.0,0.0,0.0,0.0,0.0,0.0,0.0,0.0,0.0,0.0,0.0,0.0,0.0,53.387363710617116,70.85790222688523,53.387363710617116,80.44799359259034,53.2652462666784,222.40743723938974,202.55531071889226,147.02940250222622,51.066536580932855,7.024433653294919,0.0,0.0,0.0,0.0,0.0,0.0,0.0,0.0,0.0,0.0,0.0,0.0,0.0,0.0,3.9703061651298017,25.655385734405147,40.13255763705324,143.60892268224492,172.86826224996372,80.50875446713545,116.60964936966528,50.822301693055394,30.84746203377069,58.09097023422776,0.0,0.0,0.0,0.0,0.0,0.0,0.0,0.0,0.0,0.0,0.0,0.0,0.0,0.0,25.28903340258897,24.06726326835323,93.33644733433806,182.82530164233344,167.67618595059815,209.76321838551948,229.24899257420083,276.4667447390941,178.73228233841647,64.13846433601287,0.0,0.0,0.0,0.0,0.0,0.0,0.0,0.0,0.0,0.0,0.0,0.0,0.0,0.0,20.279835421707272,51.49424548214262,96.32981394795804,358.74769138046236,134.6294185362334,133.89611817775258,151.97783960856282,114.34958311452615,2.809892600287663,59.61833182573456,0.0,0.0,0.0,0.0,0.0,0.0,0.0,0.0,0.0,0.0,0.0,0.0,0.0,0.0,32.435584499822625,144.15815333254494,311.5907000901141,371.94173657948113,392.6486852075496,390.75556697907507,355.08238097775507,289.05020271841926,187.10060356988583,70.55231076961415,0.0,0.0,0.0,0.0,0.0,0.0,0.0,0.0,0.0,0.0,0.0,0.0,0.0,10.323391724185962,118.93107219419808,237.3730789177927,325.2124541903426,376.7061039776368,398.2690661029734,389.96150574604917,354.5325546326065,289.78350307690005,193.5144500034872,74.15626460292778,0.0,0.0,0.0,0.0,0.0,0.0,0.0,0.0,0.0,0.0,0.0,0.0,0.0,10.506270042669817,114.65457887694872,228.7605227984459,311.28510863284305,361.6183448552951,383.18130698063163,377.378047766724,354.89890696442274,281.2317078320983,186.73425123806967,71.89619834778861,0.0,0.0,0.0,0.0,0.0,0.0,0.0,0.0,0.0,0.0,0.0,0.0,0.0,13.255401768412357,120.51919466024998,237.4344354871864,330.52664793364687,370.5370881267615,390.81632785362024,328.32734255305286,311.3458695073882,238.6562056214221,188.4444911480603,40.68178828735327,0.0,0.0,0.0,0.0,0.0,0.0,0.0,0.0,0.0,0.0,0.0,0.0,0.0,0.24423488787745215,66.94835693630054,153.25977492249515,216.60477372033054,246.59681795168166,291.0660340856809,308.04750713134564,204.87613784857646,180.19828736052966,127.72710232687722,43.308802569157095,0.0,0.0,0.0,0.0,0.0,0.0,0.0,0.0,0.0,0.0,0.0,0.0,0.0,2.932010044226389,107.87438011153128,216.29918226305955,303.09966571985746,355.99855965471977,377.9892306812661,372.18597146735846,339.3834389408712,274.3287959278936,175.55603740631264,67.86453561326522,0.0,0.0,0.0,0.0,0.0,0.0,0.0,0.0,0.0,0.0,0.0,0.0,0.0,0.0,16.06529436870002,22.784136564723877,72.26255067960481,101.0941813461138,107.81361923698613,130.53699492716487,83.13576874893928,72.14043323566607,76.78268318988309,28.52603920923793,0.0,0.0,0.0,0.0,0.0,0.0,0.0,0.0,0.0,0.0,0.0,0.0,0.0,0.0,1.771596479384251,78.79851455714481,140.18844286226363,181.48141406415903,274.45150906668084,313.60593576252734,245.375047817446,303.52737462106734,114.53305712785848,39.21578326524007,0.0,0.0,0.0,0.0,0.0,0.0,0.0,0.0,0.0,0.0,0.0,0.0,0.0,12.889049436596176,40.00984449826604,86.25065711164949,152.0386004831079,210.43516217460672,407.00373966625887,392.95487235966914,358.0143910219815,294.2422790177848,198.52364798436886,80.08164126077415,0.0,0.0,0.0,0.0,0.0,0.0,0.0,0.0,0.0,0.0,0.0,0.0,0.0,16.493003269909803,122.35214770902785,236.64037425416043,318.5537771740155,368.58201763404486,386.3575519127355,378.7219353448984,346.34711171962095,284.53007020814084,192.23191899470626,77.94369244957373,0.0,0.0,0.0,0.0,0.0,0.0,0.0,0.0,0.0,0.0,0.0,0.0,0.0,15.026998247796605,46.54640407065453,194.73622013772288,235.35724755053104,364.00052855437286,383.1199504112381,376.3397516458205,343.59857568872695,282.02576906512434,190.8272705419867,74.09490803353417,0.0,0.0,0.0,0.0,0.0,0.0,0.0,0.0,0.0,0.0,0.0,0.0,0.0,6.658081321478739,24.739207057440467,121.74096479448572,114.53305712785848,158.14685545943814,217.09324349608542,177.02204242842583,225.8285127542195,111.295455626361,34.69565075496177,0.06135656939360384,0.0,0.0,0.0,0.0,0.0,0.0,0.0,0.0,0.0,0.0,0.0,0.0,0.0,0.0,3.1762449321038413,1.5881224660519206,19.11942185686513,124.00103104962488,86.06777879316566,198.58440885891395,215.44376446063995,142.63138743588664,15.637585467490235,73.3008468005082,0.0,0.0,0.0,0.0,0.0,0.0,0.0,0.0,0.0,0.0,0.0,0.0,0.0,22.05143190109152,138.17201580015345,261.5624596300848,350.3787744541444,405.72120865747803,425.94028320464025,402.84995948779687,368.09354785829004,303.09966571985746,208.05297847552882,87.96149271648865,0.0,0.0,0.0,0.0,0.0,0.0,0.0,0.0,0.0,0.0,0.0,0.0,0.0,23.33396290987239,135.484836338653,249.1011190946983,330.2210564763758,379.4552357033793,399.1238882105445,390.81632785362024,356.54838599986834,294.42575303111704,201.51701459798886,84.84600865892992,0.0,0.0,0.0,0.0,0.0,0.0,0.0,0.0,0.0,0.0,0.0,0.0,0.0,15.51546802355151,122.65714347145042,192.4153930080386,265.7775963779404,322.40256159005503,322.58543990853883,322.70755735247747,193.453689128942,135.54559721319808,185.818072561105,81.42493314410014,0.0,0.0,0.0,0.0,0.0,0.0,0.0,0.0,0.0,0.0,0.0,0.0,0.0,8.857386702072771,75.43939130655713,169.50854330452748,202.37183670555993,246.59681795168166,240.6714412938353,296.9914107435273,220.7579582039442,111.47892963969336,34.8791247682941,34.57353331102304,0.0,0.0,0.0,0.0,0.0,0.0,0.0,0.0,0.0,0.0,0.0,0.0,0.0,18.935947843532805,92.84797755858314,125.10068373992188,207.25891724250286,287.82843258418336,283.8581264190537,261.19610729826854,226.1335085166421,218.68136596213742,126.93304109385129,29.4428135810511,0.0,0.0,0.0,0.0,0.0,0.0,0.0,0.0,0.0,0.0,0.0,0.0,0.0,10.079156836308515,55.892260548482206,147.33499395949727,152.0386004831079,190.2774441968382,231.5704153987336,268.8924847406507,237.3730789177927,210.25168816127442,152.4663093843177,47.340465303680496,0.0,0.0,0.0,0.0,0.0,0.0,0.0,0.0,0.0,0.0,0.0,0.0,0.0,27.24350820045707,137.684141719247,246.90240940895276,325.09033674640386,369.1926048537385,399.6129536811479,387.88431780939385,348.9741260014248,281.4145861505822,184.1078326511144,79.95892812198696,0.0,0.0,0.0,0.0,0.0,0.0,0.0,0.0,0.0,0.0,0.0,0.0,0.0,29.80916591286728,147.5178722779811,266.08259214036303,351.6619011577738,404.0109687474875,424.16868672525607,415.86112636833184,341.0329179763167,313.1174659867725,198.76788287224628,95.41363527099335,0.0,0.0,0.0,0.0,0.0,0.0,0.0,0.0,0.0,0.0,0.0,0.0,0.0,29.01510467984132,134.87424911895934,230.16517125116548,352.27248837746737,399.1238882105445,416.10536125620916,404.1938470659713,360.5186921649981,280.4376465990724,186.73425123806967,80.264519579258,0.0,0.0,0.0,0.0,0.0,0.0,0.0,0.0,0.0,0.0,0.0,0.0,0.0,30.84746203377069,13.805228113560865,269.68654597367663,118.13701096117212,144.64721880314832,199.50118323072712,426.7343444376663,380.7991232815537,314.1563578025244,210.98498851975526,95.04728293917715,0.0,0.0,0.0,0.0,0.0,0.0,0.0,0.0,0.0,0.0,0.0,0.0,0.0,34.14582440981326,151.91648303916918,264.0059998985562,342.31604467994606,389.96150574604917,408.77533614564317,402.1172548241645,365.52789014587967,304.6270273113643,211.53481486490367,95.41363527099335,0.0,0.0,0.0,0.0,0.0,0.0,0.0,0.0,0.0,0.0,0.0,0.0,0.0,36.22301234646857,160.59039572790962,277.62775399878467,363.20646732134696,414.39512134621856,434.0643695482322,424.10733015586237,386.8460216884905,310.55180827436226,217.39883495335653,99.5674154494555,5.069958855426818,0.0,0.0,0.0,0.0,0.0,0.0,0.0,0.0,0.0,0.0,0.0,0.0,36.65072124767835,156.68085043732495,272.25220368608683,352.2117275029222,398.2077095335798,400.7120106765964,392.46580688906573,356.54838599986834,291.8600953187069,203.7157242837344,91.74832486828609,3.4818363893748967,0.0,0.0,0.0,0.0,0.0,0.0,0.0,0.0,0.0,0.0,0.0,0.0,36.03953833313624,140.8603866513509,266.75453592945024,348.240825642944,394.35952081238867,409.997106279879,404.49943852324236,350.5008918980831,288.5003763732707,199.68406154921098,89.54961518254056,3.11548405755872,0.0,0.0,0.0,0.0,0.0,0.0,0.0,0.0,0.0,0.0,0.0,0.0,37.81113481252049,154.72637563945682,265.3498874767306,346.53058573295334,393.93181191117895,414.8228302474284,407.73704002473977,372.18597146735846,309.7577470413363,209.27415291491607,95.41363527099335,5.4976677566366,0.0,0.0,0.0,0.0,0.0,0.0,0.0,0.0,0.0,0.0,0.0,0.0,34.390654992539204,132.9799395007879,265.288530907337,308.65869004588774,389.65591428877815,404.56079509263606,394.9093471575371,358.99192626833974,293.7538092420298,150.450478017056,91.80968143767971,4.642249954217037,0.0,0.0,0.0,0.0,0.0,0.0,0.0,0.0,0.0,0.0,0.0,0.0,38.483078601607716,150.5112388916011,203.9599591716118,236.09054790901183,250.81195469953744,367.4823649437479,397.1694134126764,245.0694563601749,289.9056205208388,196.69129063043945,90.77138531677627,4.153780178462132,0.0,0.0,0.0,0.0,0.0,0.0,0.0,0.0,0.0,0.0,0.0,0.0,32.80193683163879,117.70930205996231,226.98892631906162,337.61243815633543,387.09085227121636,308.59733347649416,337.4289641430032,291.6158604308294,265.04429601945964,192.4153930080386,92.05391632555715,5.192076299365544,0.0,0.0,0.0,0.0,0.0,0.0,0.0,0.0,0.0,0.0,0.0,0.0,28.709513222570266,102.49942549368187,102.80442125610443,58.45732256604394,157.41415079580577,213.48928966277182,396.9859393993441,361.3741099674176,300.1676556756311,209.45762692824843,94.1918651367576,6.780198765417465,0.0,0.0,0.0,0.0,0.0,0.0,0.0,0.0,0.0,0.0,0.0,0.0,44.40845525945411,161.20098294760328,269.075958753983,260.89051584099747,392.7100417769432,407.12585711019767,400.95684125932235,367.05465604253806,305.66532343226777,214.52758578367522,98.04005385794866,8.001968899653209,0.0,0.0,0.0,0.0,0.0,0.0,0.0,0.0,0.0,0.0,0.0,0.0,46.36293005732221,160.83463061578706,263.70040844128516,336.0850765648287,389.83938830211036,408.103392356556,397.23017428722153,315.4388888113052,301.8171347110767,205.73155565099609,97.7958189700712,7.941208025108085,0.0,0.0,0.0,0.0,0.0,0.0,0.0,0.0,0.0,0.0,0.0,0.0,45.752342837628575,157.84185969701556,230.7763541657076,249.95653689711784,320.50884766673204,357.28168635834913,319.409194976435,310.6131648437558,265.04429601945964,130.23140346989385,62.42822442602221,3.11548405755872,0.0,0.0,0.0,0.0,0.0,0.0,0.0,0.0,0.0,0.0,0.0,0.0,6.352489864207683,26.510803536824714,41.903558421589004,78.98198857047714,42.331267322798794,28.09892600287663,96.39057482250314,133.53036154078487,10.139917710853636,75.56091305564736,35.856660014652384,0.06135656939360384,0.0,0.0,0.0,0.0,0.0,0.0,0.0,0.0,0.0,0.0,0.0,0.0,25.28903340258897,78.67639711320608,125.89474497294786,117.95353694783978,176.53297695782246,143.60892268224492,135.0571274374432,147.45711140343604,142.08156109073812,43.8586289143056,20.279835421707272,0.0,0.0,0.0,0.0,0.0,0.0,0.0,0.0,0.0,0.0,0.0,0.0,0.0,7.513499123898303,31.82499728012898,118.80835905541085,172.07420101693768,290.45544686598726,398.6348227399411,321.9134961194516,312.873231098895,292.5933956771877,127.72710232687722,61.32857173572521,3.6653104027072274,0.0,0.0,0.0,0.0,0.0,0.0,0.0,0.0,0.0,0.0,0.0,0.0,54.304138082430285,58.94638803664732,181.05370516294926,287.21784536448985,408.103392356556,424.84063051434316,420.38125887861,388.1291483921198,324.5405104012554,119.11395051268192,60.10680160148946,4.947841411488092,0.0,0.0,0.0,0.0,0.0,0.0,0.0,0.0,0.0,0.0,0.0,0.0,64.7490515557065,196.01934684135225,310.4910473998172,392.03809798785596,436.99637959245865,452.32837360267774,444.57063959090203,403.03343350112914,334.13060176696064,234.9295386493213,109.95156804818657,11.97227506478301,0.0,0.0,0.0,0.0,0.0,0.0,0.0,0.0,0.0,0.0,0.0,0.0,63.95499032268054,188.99431749320885,295.21981426414305,367.7265998316252,407.92051403807216,419.0987278698292,415.98324381227053,374.99586406764615,309.33003814012636,218.13153961698887,105.98126188305677,11.422448719634502,0.0,0.0,0.0,0.0,0.0,0.0,0.0,0.0,0.0,0.0,0.0,0.0,63.16092908965457,183.68012374990457,285.81319691177026,371.0255579025163,414.639356234096,229.18763600480722,424.7185130704045,385.3800166663772,321.9748526888452,221.36914111848637,108.48556302607338,13.621754100228536,0.0,0.0,0.0,0.0,0.0,0.0,0.0,0.0,0.0,0.0,0.0,0.0,62.24475041268989,180.44311794325557,283.9802438629924,357.3424472328942,191.9876841068288,326.86133753093975,332.84747506333116,250.3842457983276,159.91845193882241,124.42873995083464,61.38933261027033,5.8032592139076575,0.0,0.0,0.0,0.0,0.0,0.0,0.0,0.0,0.0,0.0,0.0,0.0,6.90231620935619,15.27123313567406,16.737238157787253,56.68632178150817,126.01686241688658,172.8069056805701,222.28531979545104,175.37256339298028,173.5402060390509,82.28035094651972,41.29297120189538,2.626418586955333,0.0,0.0,0.0,0.0,0.0,0.0,0.0,0.0,0.0,0.0,0.0,0.0,2.6877751563489367,11.545161858421707,43.24744599976348,67.1312352547844,69.51401464871074,74.2783820468665,51.066536580932855,57.66326133301798,49.66129243336477,27.121390756518345,12.522101409931517,0.0,0.0,0.0,0.0,0.0,0.0,0.0,0.0,0.0,0.0,0.0,0.0,0.0,1.1604135648421383,1.0996526902970165,19.36365674474259,32.61905851315495,57.846735346350314,41.537206089772845,49.60053155881965,29.80916591286728,60.84010195997029,50.39459279184561,24.372854725624286,0.6105872196936304,0.0,0.0,0.0,0.0,0.0,0.0,0.0,0.0,0.0,0.0,0.0,0.0,66.15429570327457,180.50328312295218,277.9333454560557,346.2249942756822,217.3982392585081,188.20025626018293,252.21660315225705,198.15729565255268,313.60593576252734,103.29348672670784,106.5918491027504,14.29369788931577,0.0,0.0,0.0,0.0,0.0,0.0,0.0,0.0,0.0,0.0,0.0,0.0,18.38612149838429,90.28231984617292,181.48141406415903,208.05297847552882,181.6035315080977,198.09593908315904,232.85294640751442,199.8675355625433,268.0376626330796,153.4432489358275,78.67639711320608,10.933978943879595,0.0,0.0,0.0,0.0,0.0,0.0,0.0,0.0,0.0,0.0,0.0,0.0,73.3008468005082,191.3770968871352,261.745933643417,306.8257369971098,358.56421736712997,375.2400989555236,360.2744572771206,327.83887277729804,267.60995373186984,157.59702911428963,80.264519579258,11.728040176905555,0.0,0.0,0.0,0.0,0.0,0.0,0.0,0.0,0.0,0.0,0.0,0.0,70.91866310143034,164.37722787970708,207.56391300492547,233.5248901966017,244.94733891623616,272.43567769941916,329.1827603554724,279.6435853660464,161.5065744048743,89.18266715587592,44.285742120666896,4.70360652361064,0.0,0.0,0.0,0.0,0.0,0.0,0.0,0.0,0.0,0.0,0.0,0.0,35.001242212232825,85.15160011620098,134.75153598017215,361.8018188686274,399.85718856902537,417.4492488343837,406.02680011474916,372.6744412431135,310.18545594254607,213.7335245506493,51.12729745547797,15.026998247796605,0.0,0.0,0.0,0.0,0.0,0.0,0.0,0.0,0.0,0.0,0.0,0.0,73.60643825777926,183.80224119384326,170.3639611069471,237.67867037506386,304.9933796431805,399.24600565448327,386.4796693566743,352.3946058214061,294.36439646172346,209.33550948430968,60.962219403909025,8.735269258134046,0.0,0.0,0.0,0.0,0.0,0.0,0.0,0.0,0.0,0.0,0.0,0.0,12.522101409931517,63.58863799086436,111.05122073848356,121.00766443600487,178.24321686781312,257.16444456374506,281.84229505179195,273.5960912642613,310.18545594254607,145.93034550677768,47.462582747619216,6.2303724202689565,0.0,0.0,0.0,0.0,0.0,0.0,0.0,0.0,0.0,0.0,0.0,0.0,82.40246839045844,206.40349944008327,310.91875630102686,383.6084201869929,425.6346917473692,441.88286443455297,430.2769417015863,392.03809798785596,327.77751620790434,233.5248901966017,116.24329703784912,17.347825377480884,0.0,0.0,0.0,0.0,0.0,0.0,0.0,0.0,0.0,0.0,0.0,0.8554178024195642,84.1740648698427,200.72295336496288,301.57289982319924,361.9239363125661,403.94961217809373,419.587197645584,423.74097782404635,372.36944548069084,310.12469506800085,221.12490623060887,112.63934320453548,17.95900829202299,0.0,0.0,0.0,0.0,0.0,0.0,0.0,0.0,0.0,0.0,0.0,3.11548405755872,88.14437103497248,206.83120834129312,305.84879744560016,374.93450749825263,412.745642310773,424.2908041691948,414.1508864583411,379.6994705912568,319.5313124203737,229.00475768632336,117.64794549056872,19.11942185686513,0.0,0.0,0.0,0.0,0.0,0.0,0.0,0.0,0.0,0.0,0.0,2.2600662551391557,76.04997852625075,146.78576330919725,221.5526151318186,249.1011190946983,309.879864485275,266.14394870975656,349.340478333241,189.6055004077509,198.21805652709773,216.48206058154332,106.1033793269955,17.287064502935763,0.0,0.0,0.0,0.0,0.0,0.0,0.0,0.0,0.0,0.0,0.0,0.0,70.36883675628181,108.6076804700121,101.03342047156866,111.6618079581772,177.32703819084838,231.26482394146248,137.80566346833726,129.19310734899042,132.73570461291044,82.40246839045844,24.983441945317914,10.201274280247238,0.0,0.0,0.0,0.0,0.0,0.0,0.0,0.0,0.0,0.0,0.0,0.0,28.221043446815358,84.35694318832655,79.95892812198696,381.4097105012474,433.8201346603548,452.8168433784327,429.7884719258314,394.6651122696598,330.8930002654631,236.5790176847668,116.97600170148148,19.18018273141025,0.0,0.0,0.0,0.0,0.0,0.0,0.0,0.0,0.0,0.0,0.0,6.90231620935619,97.30734919431632,224.23979459331912,335.29101533180267,410.6076934995726,455.0161487590268,468.88213774713273,453.85573519418466,411.34099385805337,333.7028928657508,176.47221608327732,96.51328796129036,20.64618775352345,0.0,0.0,0.0,0.0,0.0,0.0,0.0,0.0,0.0,0.0,0.0,7.207907666627247,97.61234495673891,220.39160587212803,323.80721004277456,393.8096944672402,434.9191916558033,448.11383254967046,434.4920784494419,395.70340839056325,329.91546501910483,229.7988189193493,119.35878109540785,21.19601409867196,0.0,0.0,0.0,0.0,0.0,0.0,0.0,0.0,0.0,0.0,0.0,8.490438675408111,100.36147668248144,221.49125856242503,318.00454652371536,383.7918942003253,420.87032434921343,432.1092990555156,418.5489015246808,382.14241516487976,321.608500357029,231.08134992813012,119.5416594138917,20.64618775352345,0.0,0.0,0.0,0.0,0.0,0.0,0.0,0.0,0.0,0.0,0.0,9.101621589950224,98.5285236337036,218.19289618638248,317.2712461652345,384.2196031015351,369.742431198887,438.89009351578164,426.8564618816049,390.75556697907507,327.83887277729804,228.9434011169297,118.74759818086572,20.891018336249388,0.0,0.0,0.0,0.0,0.0,0.0,0.0,0.0,0.0,0.0,0.0,9.651447935098734,95.41363527099335,210.37380560521308,215.5658819045787,193.453689128942,217.64306984123402,97.85657984461636,305.2989711004515,380.920645030644,314.2171186770695,222.95726358453828,111.96739941544828,21.25737066806556,0.0,0.0,0.0,0.0,0.0,0.0,0.0,0.0,0.0,0.0,0.0,9.345856477827676,92.60374267070569,133.52976584593642,238.59484905202842,368.94836996586105,317.2712461652345,424.35216073858834,411.1575198447212,377.86651754247885,318.92072520068007,230.71499759631402,117.70930205996231,21.562962125336615,0.0,0.0,0.0,0.0,0.0,0.0,0.0,0.0,0.0,0.0,0.0,10.873218069334474,94.2532217061512,202.7381890373761,241.4660982217097,293.6930483674847,128.94887246111296,277.56699312423956,351.1120748126253,294.120161573846,171.15802233997303,111.05122073848356,51.92135868850392,19.85212652049749,0.0,0.0,0.0,0.0,0.0,0.0,0.0,0.0,0.0,0.0,0.0,9.101621589950224,16.003937799306414,64.32193834934519,83.6855950940878,103.47636504519168,196.8741689489233,291.7993344441618,173.17325801238627,162.97257942698752,98.40640618976484,82.28035094651972,49.60053155881965,21.562962125336615,0.0,0.0,0.0,0.0,0.0,0.0,0.0,0.0,0.0,0.0,0.0,5.864020088452778,33.65735463405835,216.11570824972716,229.85957979389443,273.5347346948677,290.271972852655,273.77956527759363,308.10886370073916,275.18421373031316,257.5921534649549,178.3659300066003,114.9601703342198,23.395319479265996,0.0,0.0,0.0,0.0,0.0,0.0,0.0,0.0,0.0,0.0,0.0,0.6105872196936304,5.680546075120446,23.089728021994933,35.61182943192645,36.894956135555795,58.885031467253725,72.69025958081458,169.50913899937598,149.35082532675898,113.189169549684,73.2400859259631,20.951779210794502,0.0,0.0,0.0,0.0,0.0,0.0,0.0,0.0,0.0,0.0,0.0,0.0,14.782167665070672,108.05785412486358,226.07274764209697,314.8890624661566,376.9503388655143,414.0287690144023,425.69545262191434,413.35682522531516,380.24929693640536,319.28707753249626,232.11964604903358,123.02349580326658,23.82302838047577,0.0,0.0,0.0,0.0,0.0,0.0,0.0,0.0,0.0,0.0,0.0,16.06529436870002,108.1192106942572,219.2311923072859,308.4752160325554,370.71996644524523,337.85667304421287,422.45844681526535,406.3931524465654,372.85791525644584,311.5907000901141,70.00248442446565,121.19113844933722,24.799967931985577,0.0,0.0,0.0,0.0,0.0,0.0,0.0,0.0,0.0,0.0,0.0,16.493003269909803,111.72256883272236,232.97506385145317,331.9312963863665,400.4070149141738,439.92838963668504,451.1679600378357,386.4796693566743,305.9709148895388,337.5510815869418,241.46550252686126,104.51525686094357,24.861324501379183,0.0,0.0,0.0,0.0,0.0,0.0,0.0,0.0,0.0,0.0,0.0,17.347825377480884,112.63934320453548,232.6694723941821,330.77088282152437,399.00177076660566,439.1950892782042,450.9844860245033,439.31720672214277,401.26183702174484,336.4514288966448,243.11498156230684,77.45462697897035,25.34979427713409,0.0,0.0,0.0,0.0,0.0,0.0,0.0,0.0,0.0,0.0,0.0,18.081125735961727,113.06705210574528,224.48462517604503,324.7233887197392,391.4275107681624,429.9713502443152,441.0888032015271,428.750175804928,390.2057406339266,220.51372331606674,230.47076270843655,121.86308223842444,27.121390756518345,0.0,0.0,0.0,0.0,0.0,0.0,0.0,0.0,0.0,0.0,0.0,19.058065287471532,113.79975676937764,225.2173298396774,314.82770589676306,376.40051252036585,411.4631113019921,421.3587941249683,367.2381300558704,377.5615217800564,316.0494760309988,231.2034673720689,125.77262752900913,27.73197797621197,0.0,0.0,0.0,0.0,0.0,0.0,0.0,0.0,0.0,0.0,0.0,19.485774188681308,116.30405791239426,227.72163098269402,325.0289801770103,389.350322831507,425.5733351779755,438.4623846145718,426.6729878682726,297.4798805192822,329.9768215884985,238.71696649596726,125.5891535156768,27.182747325911947,0.0,0.0,0.0,0.0,0.0,0.0,0.0,0.0,0.0,0.0,0.0,10.262035154792363,42.94245023734091,138.66108127075682,237.12884402991529,298.51817664018563,318.6151337434091,335.29101533180267,399.9179494435704,364.18400256770525,305.11549708711925,221.67473257575736,118.44200672359469,26.510803536824714,0.0,0.0,0.0,0.0,0.0,0.0,0.0,0.0,0.0,0.0,0.0,19.85212652049749,77.21039209109291,167.3705944933271,228.88264024238464,217.15400437063056,375.78992530067217,192.47615388258373,364.5503548995215,235.60148243840848,216.48206058154332,126.38321474870277,65.84870424600352,21.19601409867196,0.0,0.0,0.0,0.0,0.0,0.0,0.0,0.0,0.0,0.0,0.0,5.925376657846383,38.11672626979154,181.6035315080977,134.26306620441724,261.6845770740234,304.26007928469966,310.2468125119396,149.16735131342662,146.35745871313895,146.6022892958649,105.91990531366316,60.29027561482179,17.95900829202299,0.0,0.0,0.0,0.0,0.0,0.0,0.0,0.0,0.0,0.0,0.0,21.135253224126835,55.8309039790886,161.0788655036645,223.56785080423182,148.0069377485845,336.81837692330953,356.97609490107806,276.1617489766715,242.56515521715832,159.24650814973518,111.53969051423849,57.17479155726308,18.935947843532805,0.0,0.0,0.0,0.0,0.0,0.0,0.0,0.0,0.0,0.0,0.0,0.6105872196936304,56.86920009999203,13.499636656289807,20.768900892310654,79.7760498035031,161.0175089342709,207.74738701825774,164.25570613061683,147.76270286070704,168.1038948518079,136.33965844622406,77.33250953503159,22.23490591442385,0.0,0.0,0.0,0.0,0.0,0.0,0.0,0.0,0.0,0.0,0.0,0.0,68.35300538902013,72.26255067960481,69.26918406598479,272.43567769941916,229.85957979389443,134.93500999350448,172.01284444754413,112.33375174726444,98.28428874582613,91.99255975616356,23.395319479265996,12.827692867202574,0.0,0.0,0.0,0.0,0.0,0.0,0.0,0.0,0.0,0.0,0.0,6.047494101785108,18.569595511716624,45.935221156112426,172.68538393147983,390.9998018669525,423.31326892283636,435.40766143155815,373.95756794674276,391.85521966937216,330.8930002654631,235.7849564517408,128.88751589171937,29.25933956771877,0.0,0.0,0.0,0.0,0.0,0.0,0.0,0.0,0.0,0.0,0.0,23.700910936537053,123.32908726053765,232.97506385145317,317.5768376225056,376.40051252036585,409.8136322665466,418.42678408074204,404.6215559671811,369.8645486428257,311.10163461951066,227.96646156542,124.36738338144104,27.73197797621197,0.0,0.0,0.0,0.0,0.0,0.0,0.0,0.0,0.0,0.0,0.0,23.578197797749844,121.92384311296956,229.7988189193493,312.26264387920133,367.9714304143512,399.9179494435704,408.5311012577658,397.78000063237005,366.01635992163466,309.94122105466863,228.51569221571998,125.83338840355422,28.709513222570266,0.0,0.0,0.0,0.0,0.0,0.0,0.0,0.0,0.0,0.0,0.0,25.22767683319536,123.02349580326658,232.11964604903358,316.59930237614736,375.17874238613,407.9199183432236,416.6551876013576,422.27497280193313,371.63614512221,315.866597712515,233.5248901966017,128.70463757323552,29.80916591286728,0.0,0.0,0.0,0.0,0.0,0.0,0.0,0.0,0.0,0.0,0.0,25.71614660895027,122.35155201417936,229.0655185608685,311.10163461951066,369.80378776828064,401.38395446568364,409.6307539480628,370.23149666949035,364.611711468915,307.9867462568005,225.52292129694848,124.67297483871212,30.481109701954512,0.0,0.0,0.0,0.0,0.0,0.0,0.0,0.0,0.0,0.0,0.0,25.96097719167621,121.67960822509212,221.00278878667012,318.9814860752252,377.9278741118725,366.871777724054,423.9244518373785,410.1192237238177,374.3846811531041,317.08777215190224,226.37774340451958,125.28356205840576,30.66398802043836,0.0,0.0,0.0,0.0,0.0,0.0,0.0,0.0,0.0,0.0,0.0,23.700910936537053,102.62154293762056,193.63716314227437,276.71157532182,198.76788287224628,213.55064623216546,367.7265998316252,362.1681712004436,332.3590052875763,245.43640438683957,223.07938102847692,109.70733316030909,31.335931809525594,0.0,0.0,0.0,0.0,0.0,0.0,0.0,0.0,0.0,0.0,0.0,28.77086979196387,108.85191535788955,179.9540524726522,246.4747005077429,254.0489605061864,308.53597690710046,344.02628458993667,326.4949851991235,260.34068949584895,150.87818691826575,109.34098082849293,78.31004478138992,22.60125824624003,0.0,0.0,0.0,0.0,0.0,0.0,0.0,0.0,0.0,0.0,0.0,6.780198765417465,78.31004478138992,145.19704514829687,194.49198524984544,276.34462729515536,292.34916078931025,327.5946378894206,387.02949570182267,350.44013102353813,295.7696406092916,216.23782569366588,118.50336329298828,32.741175957093674,0.0,0.0,0.0,0.0,0.0,0.0,0.0,0.0,0.0,0.0,0.0,21.745840443820466,68.35300538902013,142.08156109073812,204.02131574100545,189.36066982502498,196.141464285291,293.02110457839746,279.82646368453015,316.66065894554094,255.5149655282996,219.41466632061818,122.0459605569083,33.901589521935804,0.0,0.0,0.0,0.0,0.0,0.0,0.0,0.0,0.0,0.0,0.0,29.4428135810511,121.55749078115342,227.59951353875528,312.99534854283365,292.16568677597786,392.8929200954271,400.52913235811263,387.8235569348488,353.7998499689742,155.27620198460534,222.3460806699961,122.77926091538912,33.535237190119624,0.0,0.0,0.0,0.0,0.0,0.0,0.0,0.0,0.0,0.0,0.0,28.58739577863154,120.45843378570488,224.42326860665142,184.47418498293044,315.4996496858504,404.74367341111986,414.7614736780347,387.5793220469713,302.9775482759188,238.10637927627357,179.46558269689731,97.18523175037758,25.471911721072807,0.0,0.0,0.0,0.0,0.0,0.0,0.0,0.0,0.0,0.0,0.0,17.531299390813214,4.642249954217037,65.60446935812607,129.19310734899042,292.16568677597786,199.0127134549722,173.3567320257186,267.2436014000536,270.3590854576124,140.79903008195726,95.35227870159972,67.98665305720394,35.428951113442615,0.0,0.0,0.0,0.0,0.0,0.0,0.0,0.0,0.0,0.0,0.0,31.82499728012898,136.21813669713382,252.88854694134426,342.0712140972201,403.09479007052283,437.30137535488115,444.6319961602956,428.2611103343245,391.4882716427075,330.40453048970824,244.45886914048126,133.71323985926873,35.856660014652384,0.0,0.0,0.0,0.0,0.0,0.0,0.0,0.0,0.0,0.0,0.0,31.885758154674107,131.02546470291978,235.47936499446976,318.18742484219933,373.7740939334103,404.9271474244521,413.1733512119829,403.2776683890066,367.36024749980913,312.75111365495627,231.1427064975238,130.71987324564876,35.73454257071366,0.0,0.0,0.0,0.0,0.0,0.0,0.0,0.0,0.0,0.0,0.0,18.081125735961727,129.0096333356581,232.6694723941821,314.82770589676306,372.4302063552359,404.3165602047585,412.5627639922892,290.39409029659373,369.8645486428257,311.2237520634495,230.16517125116548,129.37658136232278,35.245477100110286,0.0,0.0,0.0,0.0,0.0,0.0,0.0,0.0,0.0,0.0,0.0,31.82499728012898,124.855853157196,225.52292129694848,305.11549708711925,360.3358138465142,391.0611584363462,399.3073622238768,345.4309330426563,360.4579312904529,74.2170254774729,116.79312338299765,128.33768954657086,37.68901736858176,0.0,0.0,0.0,0.0,0.0,0.0,0.0,0.0,0.0,0.0,0.0,33.29100230224218,102.07171659247207,223.01862015393183,301.63366069774435,355.5708507535099,386.3575519127355,342.49892299842986,260.76839839705866,100.91130302762994,271.7023773409384,176.28874206994496,126.56668876203508,38.421722032214106,0.0,0.0,0.0,0.0,0.0,0.0,0.0,0.0,0.0,0.0,0.0,32.98541084497112,122.65714347145042,222.28531979545104,301.57289982319924,356.97609490107806,388.3733832799972,216.48206058154332,392.2215720011883,354.28831974472916,300.4732471329022,222.3466763648446,108.24132813819591,37.50554335524943,0.0,0.0,0.0,0.0,0.0,0.0,0.0,0.0,0.0,0.0,0.0,32.55770194376134,125.10068373992188,230.5315235829817,313.6672923319209,371.147675346455,404.0109687474875,413.1733512119829,403.03343350112914,369.13184397919343,311.8349349779916,224.36250773210634,128.88751589171937,37.81113481252049,0.0,0.0,0.0,0.0,0.0,0.0,0.0,0.0,0.0,0.0,0.0,32.924649970426,123.69543959235382,222.4687938087833,310.4910473998172,370.59784900130654,403.09479007052283,411.890820203202,400.10142345690286,365.95559904708944,299.67918589987625,221.49125856242503,127.72710232687722,38.11672626979154,0.0,0.0,0.0,0.0,0.0,0.0,0.0,0.0,0.0,0.0,0.0,20.524070309584726,119.60301598328527,202.7381890373761,271.88585135427064,354.3496763141227,357.22032978895544,326.92269410033333,360.6408096089368,305.543205988329,272.7406734618417,198.2794130964914,125.71127095961552,38.60519604554646,0.0,0.0,0.0,0.0,0.0,0.0,0.0,0.0,0.0,0.0,0.0,33.718711203451946,104.57601773548868,218.9256008500148,295.3419317080818,348.05794732446014,377.31728689217897,387.45720460303255,377.4394043361177,208.29721336340629,242.56515521715832,216.54341715093696,105.1872006500308,40.254675080991966,0.0,0.0,0.0,0.0,0.0,0.0,0.0,0.0,0.0,0.0,0.0,34.63488988041665,120.21360320297892,215.1387686982174,291.7993344441618,345.91999851325966,376.76686485218175,387.2123740203065,375.9733993140045,343.1708667875172,253.2548992731604,200.60024022617569,96.08557906008059,36.405890664952416,0.0,0.0,0.0,0.0,0.0,0.0,0.0,0.0,0.0,0.0,0.0,29.747809343473676,122.59638259690529,192.35403643864498,250.87271557408246,314.9498233407018,271.45814245306093,282.941947742089,301.32806924047327,268.2205409515634,265.65488323915315,195.77451625862628,76.41633085806694,37.44478248070431,0.0,0.0,0.0,0.0,0.0,0.0,0.0,0.0,0.0,0.0,0.0,28.465278334692808,117.15947571481381,189.7883787262348,258.6918061552519,315.56100625524385,341.6441008908588,368.09354785829004,343.72069313266564,314.5834710088856,303.95508352227705,227.2331612069391,132.36935228109428,37.56689992464303,0.0,0.0,0.0,0.0,0.0,0.0,0.0,0.0,0.0,0.0,0.0,31.27517093498048,95.90210504674823,190.03320930896072,257.4700360210162,299.80130334381494,327.1669289882108,351.84477947625754,329.6104692566822,325.0289801770103,266.9987708173277,176.1058637514611,117.58718461602359,38.238843713730276,0.0,0.0,0.0,0.0,0.0,0.0,0.0,0.0,0.0,0.0,0.0,31.335931809525594,118.13701096117212,170.3639611069471,251.85025082044083,284.5914267775345,245.00869548562977,130.1706425953487,236.63977855931188,296.93005417413366,238.77832306536078,186.73425123806967,116.85388425754276,38.78867005887878,0.0,0.0,0.0,0.0,0.0,0.0,0.0,0.0,0.0,0.0,0.0,32.37482362527749,115.14364434755213,203.4714893958569,255.45420465375443,313.9115272197984,327.41116387608815,354.89890696442274,319.714786433706,283.3083000739052,226.6225739872455,178.73228233841647,113.92187421331636,15.454111454157909,0.0,0.0,0.0,0.0,0.0,0.0,0.0,0.0,0.0,0.0,0.0,29.56493102498983,123.38984813508276,220.08661010970542,296.6858192862563,349.5239523465733,379.5159965779245,388.18990926666487,378.11134812520487,346.8969380647696,296.0752320665626,222.28531979545104,130.35352091383257,41.842797547043894,0.0,0.0,0.0,0.0,0.0,0.0,0.0,0.0,0.0,0.0,0.0,30.35899225801579,122.65714347145042,216.90976948275315,293.26533946627495,346.286350845076,375.6678078567334,183.13029740475605,208.7856831391612,259.1802759310068,292.7762739956716,217.15400437063056,127.91057634020956,38.8494309334239,0.0,0.0,0.0,0.0,0.0,0.0,0.0,0.0,0.0,0.0,0.0,35.55106855738133,67.07047438023925,212.14540208459735,287.0343713511575,339.93326528601966,287.1570844899447,267.97630606368597,167.61482938120452,40.49890996886943,136.27889757167895,149.9614125464526,105.85914443911804,39.64349216644986,0.0,0.0,0.0,0.0,0.0,0.0,0.0,0.0,0.0,0.0,0.0,32.679819387700064,125.83338840355422,226.8668088751229,306.8257369971098,362.5958801016532,394.4816382563274,403.94961217809373,338.4672602639065,365.2836552580024,309.26927726558137,232.7308289635757,137.19507624864366,42.331267322798794,0.0,0.0,0.0,0.0,0.0,0.0,0.0,0.0,0.0,0.0,0.0,34.20718097920686,121.49672990660828,215.3216470167012,290.2112119781098,342.8652753302461,372.73579781250703,383.1199504112381,374.69027261037513,344.698228379024,294.2422790177848,161.5679309742679,110.195802936064,43.8586289143056,0.0,0.0,0.0,0.0,0.0,0.0,0.0,0.0,0.0,0.0,0.0,33.413119746180904,123.0848523726602,139.45514250378278,294.85346193232687,191.68209264955777,380.9820016000377,384.95290346001593,293.7538092420298,347.01905550870816,295.28117083353663,223.9955597054416,133.22477008351382,43.24744599976348,0.0,0.0,0.0,0.0,0.0,0.0,0.0,0.0,0.0,0.0,0.0,33.413119746180904,121.80172566903084,216.66553459487568,293.26533946627495,342.804514455701,281.1095903881596,387.51796547757766,373.46850247613935,343.904167145998,293.81516581142347,220.81931477333785,132.0637608238232,44.469216133999225,0.0,0.0,0.0,0.0,0.0,0.0,0.0,0.0,0.0,0.0,0.0,34.512772436477924,87.1668357886142,214.46682490913017,288.19538061084813,339.5669129542035,369.80378776828064,378.8440527888373,367.42160406920266,337.97879048815173,212.69522842974587,150.75547377947856,125.5891535156768,40.804501426140476,0.0,0.0,0.0,0.0,0.0,0.0,0.0,0.0,0.0,0.0,0.0,34.512772436477924,119.96936831510149,212.08404551520374,287.76767170963836,340.8500396578329,202.55531071889226,270.4806072067026,59.374096937857104,326.86133753093975,292.40992166385536,227.7829875520876,135.60695378259172,42.02567586552775,0.0,0.0,0.0,0.0,0.0,0.0,0.0,0.0,0.0,0.0,0.0,33.77947207799708,120.45783809085638,216.05494737518202,291.92145188810053,345.85864194386613,260.52416350918134,391.0611584363462,310.18545594254607,147.33499395949727,15.69834634203536,24.005906698959627,22.17354934503025,13.0111668805349,0.0,0.0,0.0,0.0,0.0,0.0,0.0,0.0,0.0,0.0,0.0,33.77947207799708,120.57995553479509,213.36717221883316,289.8442639514452,343.72069313266564,322.58543990853883,167.67618595059815,250.87271557408246,349.03488687596985,294.42575303111704,222.7737895712059,114.9601703342198,46.79063895853199,0.0,0.0,0.0,0.0,0.0,0.0,0.0,0.0,0.0,0.0,0.0,19.241539300803858,117.95353694783978,209.64110094158082,231.5704153987336,340.4223307566231,239.2667928411157,150.63335633553984,227.47739609481656,290.51620774053237,192.35403643864498,52.65465904698476,3.359718945436172,43.308802569157095,0.0,0.0,0.0,0.0,0.0,0.0,0.0,0.0,0.0,0.0,0.0,33.77947207799708,119.17530708207552,213.9169985639816,291.67721700022304,340.60520907510687,267.4878362879311,190.8272705419867,281.9036516211856,294.5478704750558,294.6699879189945,216.11570824972716,57.29690900120181,26.021738066221324,0.0,0.0,0.0,0.0,0.0,0.0,0.0,0.0,0.0,0.0,0.0,33.718711203451946,119.5416594138917,213.06158076156208,289.53926818902266,343.3543408008495,250.6284806862051,87.1668357886142,334.13060176696064,302.7333133880413,221.185667105154,26.205212079553647,45.935221156112426,33.22964573284857,0.0,0.0,0.0,0.0,0.0,0.0,0.0,0.0,0.0,0.0,0.0,20.829661766855782,75.37803473716352,62.91669420177713,68.47512283295885,113.92187421331636,162.11716162456796,313.60593576252734,275.1234528557681,83.3186470674231,15.881820355367687,70.98001967082394,51.49424548214262,31.03093604710302,0.0,0.0,0.0,0.0,0.0,0.0,0.0,0.0,0.0,0.0,0.0,32.863293401032394,119.35878109540785,213.48928966277182,291.43238641749707,339.5061520796584,304.56567074197073,382.75359807942186,371.0863187770615,340.8500396578329,291.67721700022304,226.3169825299744,136.52313245955642,44.77480759127028,0.4277089012097821,0.0,0.0,0.0,0.0,0.0,0.0,0.0,0.0,0.0,0.0,28.89298723590259,119.35878109540785,217.15400437063056,296.6858192862563,354.22696317533547,282.27000395300183,353.37214106776435,270.84755523336725,318.5537771740155,285.0185399838958,229.4932274620783,135.17924488138192,49.53917498942605,0.4277089012097821,0.0,0.0,0.0,0.0,0.0,0.0,0.0,0.0,0.0,0.0,26.87715586864089,118.5641241675334,211.47345829551014,266.6324184855115,339.7497912726874,327.96099022123667,314.2171186770695,351.41707057504783,241.71033310958717,252.4000771655893,226.25562596058083,137.6227851498534,44.71345102187668,0.4884697757549044,0.0,0.0,0.0,0.0,0.0,0.0,0.0,0.0,0.0,0.0,32.06923216800644,122.90137835932785,220.2694884281893,296.3802278289852,316.66065894554094,333.51941885241854,409.0195710335207,395.337056058747,364.79458978739893,313.60593576252734,231.814650286611,141.0432649698347,43.91938978885071,0.9161786769646866,0.0,0.0,0.0,0.0,0.0,0.0,0.0,0.0,0.0,0.0,28.09892600287663,99.26182399218443,178.9765172262939,259.79086315070043,305.7260843068129,332.7867141887861,351.5391880189866,374.69027261037513,343.41510167539457,294.9142228068721,224.66750349452892,136.70660647288872,45.32463393641879,0.3663523318161783,0.0,0.0,0.0,0.0,0.0,0.0,0.0,0.0,0.0,0.0,29.80916591286728,110.13504206151887,177.69398621751307,171.46361379724408,145.56339748011303,237.6173138056702,324.6012712758005,237.6173138056702,301.14519092198935,243.54269046351658,189.91049617017356,47.523343622164354,38.9107875028175,0.0,0.0,0.0,0.0,0.0,0.0,0.0,0.0,0.0,0.0,0.0,28.89298723590259,91.19849852313763,215.38300358609482,105.55355298184696,39.09366582130135,28.64875234802514,117.15947571481381,220.2694884281893,373.59061992007804,270.0534940003413,174.27350639753178,124.18390936810871,50.21111877851328,0.9775352463582904,0.0,0.0,0.0,0.0,0.0,0.0,0.0,0.0,0.0,0.0,0.0,27.48774308833452,110.07368549212528,168.8365995154403,304.6270273113643,353.9219674129129,405.47697376960076,337.5510815869418,297.78547197655325,163.4610492027424,203.10513706404072,105.30931809396952,45.14115992308646,0.4884697757549044,0.0,0.0,0.0,0.0,0.0,0.0,0.0,0.0,0.0,0.0,27.182747325911947,117.64794549056872,178.67092576902286,288.0732631669094,339.99462185541336,371.2697927903938,338.9563257345099,321.7913786755129,346.6527031768921,293.6930483674847,224.11767714938043,137.56142858045982,46.60716494519965,0.9161786769646866,0.0,0.0,0.0,0.0,0.0,0.0,0.0,0.0,0.0,0.0,31.58076239225153,116.48753192572657,210.80151450642288,287.27920193388337,342.37680555449117,376.4618690897593,386.60178680061296,227.6608701081489,353.9827282874581,299.5570684559375,217.27671750941775,140.12708629287002,46.66852151459326,1.4660050221131946,0.0,0.0,0.0,0.0,0.0,0.0,0.0,0.0,0.0,0.0,29.4428135810511,115.93770558057808,212.2675195285361,249.89518032772426,191.07150542986412,76.2942134141282,228.99463087389918,228.691422196022,228.68725233208264,192.7477907334913,76.04997852625075,109.34098082849293,47.095634720954564,1.4660050221131946,0.0,0.0,0.0,0.0,0.0,0.0,0.0,0.0,0.0,0.0,30.603227145893246,114.34958311452615,209.45762692824843,216.2253161018478,223.4409678015053,194.12384583348373,184.81968799504986,61.450689179663925,44.896925035208994,138.35548981348578,178.3045734372067,98.1621713018874,33.10752828890985,0.0,0.0,0.0,0.0,0.0,0.0,0.0,0.0,0.0,0.0,0.0,26.265972954098782,114.53305712785848,210.31304473066803,219.35867100486095,225.76656048997745,81.30281570016143,72.81237702475329,69.57477552325587,129.37658136232278,168.1038948518079,179.4042261275037,136.58448902895,47.03487384640943,0.0,0.0,0.0,0.0,0.0,0.0,0.0,0.0,0.0,0.0,0.0,18.69171295565535,104.94237006730488,201.02794912738545,288.0119065975158,243.2370990062455,105.55355298184696,283.36965664329875,293.02110457839746,231.814650286611,237.92290526294124,115.08288347300699,138.59972470136321,26.44944696743111,0.0,0.0,0.0,0.0,0.0,0.0,0.0,0.0,0.0,0.0,0.0,32.80193683163879,65.84870424600352,169.0200735287726,224.60674261998372,12.766336297808971,29.4428135810511,42.02567586552775,90.40443729011163,191.92632753743527,288.19538061084813,185.02401132807898,6.352489864207683,47.58470019155794,0.0,0.0,0.0,0.0,0.0,0.0,0.0,0.0,0.0,0.0,0.0,28.58739577863154,113.189169549684,206.40349944008327,283.91948298844727,336.2071940087674,382.3258891782122,393.3819855660303,367.7879564010189,339.32267806632615,251.2390679058987,220.94143221727649,135.2406014507755,52.410424159107315,0.0,0.0,0.0,0.0,0.0,0.0,0.0,0.0,0.0,0.0,0.0,30.11475737013834,108.91267623243465,197.85170419528163,280.1934117111949,339.4447955102649,294.120161573846,321.05867401188056,378.7219353448984,346.286350845076,293.38745691021364,215.68799934851742,132.49146972503297,45.38539481096391,0.0,0.0,0.0,0.0,0.0,0.0,0.0,0.0,0.0,0.0,0.0,29.687048468928552,109.82945060424784,199.7448224237561,275.36768774364555,294.9755793762656,338.58997340269383,326.3728677551848,322.2190875767227,289.4171507450838,252.03312913892466,194.36986780590667,131.81952593594576,49.53917498942605,0.0,0.0,0.0,0.0,0.0,0.0,0.0,0.0,0.0,0.0,0.0,28.465278334692808,107.69150179304741,195.46952049620373,269.2588370724668,326.61710264306225,273.5960912642613,228.27145732784248,366.8104211546606,55.892260548482206,88.32784504830481,99.26182399218443,137.31778938743082,46.11869516944475,0.0,0.0,0.0,0.0,0.0,0.0,0.0,0.0,0.0,0.0,0.0,28.64875234802514,108.24132813819591,197.24111697558797,271.45814245306093,325.8230414100363,358.3199824792525,242.8707466744293,227.96646156542,340.8500396578329,288.98944184387415,220.81931477333785,137.4393111365211,52.349067589713705,0.3663523318161783,0.0,0.0,0.0,0.0,0.0,0.0,0.0,0.0,0.0,0.0,26.999273312579607,109.95156804818657,202.9216630507084,280.5597640430111,335.9021982463449,367.7879564010189,342.37680555449117,323.74644916822945,198.58440885891395,257.6529143395,205.1817293058476,129.4373422368679,51.249414899416685,0.3663523318161783,0.0,0.0,0.0,0.0,0.0,0.0,0.0,0.0,0.0,0.0,25.96097719167621,104.2096654036725,164.4385844491007,249.1011190946983,307.80327224346814,296.3802278289852,305.6045625577226,222.590911252722,270.969672677306,228.27145732784248,199.3790657867884,129.2538682235355,17.83629515323579,0.0,0.0,0.0,0.0,0.0,0.0,0.0,0.0,0.0,0.0,0.0,6.597320446933618,35.001242212232825,98.1621713018874,113.67763932543892,232.36447663175952,324.11280150004563,302.4277219307703,300.77883859017317,273.47397382032256,209.9460967040033,145.93034550677768,111.295455626361,42.81973709855371,0.0,0.0,0.0,0.0,0.0,0.0,0.0,0.0,0.0,0.0,0.0,26.755038424702164,68.35300538902013,105.85914443911804,183.2524148486948,278.299697787872,280.49840747361753,261.92881196190086,326.73922008700094,322.70755735247747,241.58821566564845,191.9876841068288,99.26182399218443,35.245477100110286,0.0,0.0,0.0,0.0,0.0,0.0,0.0,0.0,0.0,0.0,0.0,22.845493134117483,104.45390029154996,192.04844498137402,267.2436014000536,244.03116023927151,283.6138915311762,123.32908726053765,350.6843659114154,311.28510863284305,226.07274764209697,57.9080919157439,25.533268290466427,0.0,0.0,0.0,0.0,0.0,0.0,0.0,0.0,0.0,0.0,0.0,0.0,26.571564411369835,104.57601773548868,192.23191899470626,269.5644285297379,328.938525467595,202.4331932749535,330.77088282152437,334.00848432302183,212.93946331762334,266.02183126581787,173.41808859511218,115.87694470603293,33.29100230224218,0.0,0.0,0.0,0.0,0.0,0.0,0.0,0.0,0.0,0.0,0.0,24.983441945317914,106.04202275760187,199.9896530064821,245.68063927471698,285.0185399838958,300.96171690865714,245.6192827053234,233.3414161832694,290.39409029659373,294.7313444883881,199.4398266613335,130.04852515141002,50.883062567600525,0.3663523318161783,0.0,0.0,0.0,0.0,0.0,0.0,0.0,0.0,0.0,0.0,25.71614660895027,104.88160919275974,196.62993406104584,275.06209628637447,331.56494405455027,365.4057727019409,332.42036185696986,374.07968539068156,344.51475436569166,296.7471758556498,225.8285127542195,137.74490259379215,46.72928238913838,0.0,0.0,0.0,0.0,0.0,0.0,0.0,0.0,0.0,0.0,0.0,25.28903340258897,104.45390029154996,171.82937043421174,237.12884402991529,220.94143221727649,90.89350276071505,60.10680160148946,148.0069377485845,291.00527321113583,213.2450547748944,175.4952765317675,136.82872391682744,37.627660799188156,0.0,0.0,0.0,0.0,0.0,0.0,0.0,0.0,0.0,0.0,0.0,21.745840443820466,73.60643825777926,200.17312701981442,113.86111333877123,269.9307808615541,268.34265839550216,63.16092908965457,91.87044231222485,175.31180251843517,170.18048709361474,135.79042779592405,75.6830304995861,14.782167665070672,0.0,0.0,0.0,0.0,0.0,0.0,0.0,0.0,0.0,0.0,0.0,11.178213831757052,77.82097931078653,28.221043446815358,75.7443870689797,90.89350276071505,172.4405533487539,180.13752648598458,199.9896530064821,211.35134085157142,213.67276367610413,26.87715586864089,67.62030072538775,42.08703243492135,0.0,0.0,0.0,0.0,0.0,0.0,0.0,0.0,0.0,0.0,0.0,8.185442912985536,61.878398080873716,93.39780390373166,155.886789204299,356.4876251253231,299.5570684559375,390.57209296574274,257.9585057967711,161.9342833060841,283.0646608808762,230.16517125116548,139.5164990731764,48.62299631246136,0.0,0.0,0.0,0.0,0.0,0.0,0.0,0.0,0.0,0.0,0.0,20.4633094350396,106.89744056002144,208.35797423795142,299.80130334381494,360.6408096089368,158.5745643606479,329.42699524334995,387.7622003654551,356.48702943047465,308.1696245752844,234.74666033083741,106.46973165881164,44.59133357793796,0.0,0.0,0.0,0.0,0.0,0.0,0.0,0.0,0.0,0.0,0.0,22.23490591442385,105.1872006500308,201.76124948586627,281.78153417724684,337.85667304421287,371.69750169160363,266.9987708173277,377.50016521066283,233.9525990978114,300.2897731195699,226.49986084845824,137.25643281803724,49.478414114880934,0.0,0.0,0.0,0.0,0.0,0.0,0.0,0.0,0.0,0.0,0.0,23.45608035381111,102.37730804974315,166.8207681481786,250.6284806862051,295.28117083353663,330.0375824630435,374.4460377224977,365.4057727019409,168.16465572635306,219.7810186524344,222.52955468332848,134.9957708680496,43.06456768127964,0.0,0.0,0.0,0.0,0.0,0.0,0.0,0.0,0.0,0.0,0.0,22.60125824624003,100.666472444904,192.5988670213709,271.824494784877,328.63293401032394,362.41240608832095,374.07968539068156,371.0255579025163,342.37680555449117,294.60922704444937,224.42326860665142,135.42347976925936,48.07316996731284,0.0,0.0,0.0,0.0,0.0,0.0,0.0,0.0,0.0,0.0,0.0,20.15771797776855,101.39977280338483,198.76788287224628,279.88782025392385,249.83441945317912,134.75153598017215,389.83938830211036,376.4618690897593,361.6183448552951,311.65146096465924,237.4344354871864,140.12708629287002,44.77480759127028,0.0,0.0,0.0,0.0,0.0,0.0,0.0,0.0,0.0,0.0,0.0,18.141886610506845,100.97206390217505,185.39036365989517,193.82004146075818,90.34367641556652,230.5315235829817,331.626300623944,300.350533994115,248.42917530561107,247.14664429683017,168.1038948518079,113.67763932543892,44.3470986900605,0.0,0.0,0.0,0.0,0.0,0.0,0.0,0.0,0.0,0.0,0.0,16.9201164762711,82.58594240379077,170.97454832664073,256.5538573440515,283.3083000739052,330.58740880819204,383.3641852991156,321.18079145581925,295.7696406092916,273.47397382032256,224.11767714938043,117.03735827087507,42.147793309466465,0.0,0.0,0.0,0.0,0.0,0.0,0.0,0.0,0.0,0.0,0.0,17.531299390813214,100.60571157035886,200.41676621284333,281.29246870664343,338.4064993893614,371.94114088463255,268.0376626330796,48.56163974306775,167.7983033945369,287.21784536448985,236.88460914203785,122.71790434599554,43.308802569157095,0.0,0.0,0.0,0.0,0.0,0.0,0.0,0.0,0.0,0.0,0.0,19.607891632620035,79.65393235956441,165.1105282381879,216.7268911642693,297.96894598988564,188.56660859199903,155.76467176036024,220.63643645485402,244.70310402835872,208.35797423795142,138.4776072574245,62.55034186996096,25.34979427713409,0.0,0.0,0.0,0.0,0.0,0.0,0.0,0.0,0.0,0.0,0.0,9.651447935098734,68.53647940235246,75.2559172932248,79.34834090229333,228.27145732784248,194.73622013772288,199.07347432951732,299.12935955472767,281.5980601639145,268.4647758394409,158.33032947277047,66.15429570327457,43.18668512521836,0.0,0.0,0.0,0.0,0.0,0.0,0.0,0.0,0.0,0.0,0.0,18.203243179900447,98.46776275915846,144.83069281648062,144.58645792860318,342.31604467994606,280.1320551418013,278.2383412184784,380.24929693640536,349.03488687596985,301.08383435259583,159.5520996070062,101.33841623399124,14.049463001438316,0.0,0.0,0.0,0.0,0.0,0.0,0.0,0.0,0.0,0.0,0.0,17.83629515323579,98.5285236337036,194.91969415105518,275.79539664485543,333.15306652060224,366.38271225345085,378.2334655691436,369.62031375494826,136.52313245955642,299.1907161241213,222.4687938087833,132.9191786262428,43.125328555824744,0.0,0.0,0.0,0.0,0.0,0.0,0.0,0.0,0.0,0.0,0.0,16.493003269909803,97.49022751280016,195.10316816438754,275.2455702997068,331.7484180678826,365.2836552580024,289.6613856329613,385.8690821369806,340.8500396578329,293.9372832553622,223.62920737362546,132.73570461291044,37.13919102343325,0.0,0.0,0.0,0.0,0.0,0.0,0.0,0.0,0.0,0.0,0.0,15.393350579612784,76.84403975927671,194.61469838863263,275.9175140887941,334.25271921089933,367.36024749980913,379.0882876767147,370.4757315573679,341.6441008908588,217.5817132718404,221.7354934503025,129.74293369413894,42.45338476673752,0.0,0.0,0.0,0.0,0.0,0.0,0.0,0.0,0.0,0.0,0.0,9.223739033888949,51.677123800626475,166.51577238575598,156.68085043732495,240.42720640595783,298.88512466685034,127.4215108696062,116.91524082693635,150.63335633553984,258.446975572526,227.6608701081489,132.2472348371555,43.24744599976348,0.0,0.0,0.0,0.0,0.0,0.0,0.0,0.0,0.0,0.0,0.0,16.003937799306414,95.2915178270546
...